Circuit: * C:\users\carlos\Meus Documentos\LTspiceXVII\AD_DA.asc

Direct Newton iteration failed to find .op point.  (Use ".option noopiter" to skip.)
Starting Gmin stepping
Gmin = 10
Gmin = 1.07374
Gmin = 0.115292
Gmin = 0.0123794
Gmin = 0.00132923
Gmin = 0.000142725
Gmin = 1.5325e-05
Gmin = 1.6455e-06
Gmin = 1.76685e-07
Gmin = 1.89714e-08
vernier = 0.5
Gmin = 3.18287e-09
vernier = 0.25
vernier = 0.125
vernier = 0.0625
vernier = 0.03125
Gmin = 2.66279e-09
vernier = 0.015625
vernier = 0.0078125
vernier = 0.00390625
vernier = 0.00195313
Gmin = 2.64984e-09
vernier = 0.000976563
Gmin = 2.64209e-09
vernier = 0.000488281
vernier = 0.000651042
vernier = 0.000488281
Gmin = 2.64048e-09
Gmin = 0
Gmin stepping failed

Starting source stepping with srcstepmethod=0
Source Step = 3.0303%
Source Step = 33.3333%
Source Step = 63.6364%
Source Step = 93.9394%
Source stepping succeeded in finding the operating point.

Heightened Def Con from 0.00138234 to 0.00138234
Heightened Def Con from 0.0172941 to 0.0172941

Date: Fri Feb 28 09:48:08 2020
Total elapsed time: 0.863 seconds.

tnom = 27
temp = 27
method = modified trap
totiter = 11062
traniter = 8786
tranpoints = 2277
accept = 1629
rejected = 650
matrix size = 46
fillins = 17
solver = Normal
Thread vector: 42.8/28.9[4] 14.3/6.8[4] 9.7/6.0[4] 0.7/5.7[1]  2592/500
Matrix Compiler1: 3.28 KB object code size  3.8/1.3/[0.6]
Matrix Compiler2: 4.37 KB object code size  1.5/2.4/[0.8]

